Circuit: * Z:\home\abel\Desktop\Abel\Facu\Electrónica Analógica III\Repositorio EA3\AnalogElectronics-III\TP1\Simulaciones\Circuito resonante 1\Circuito resonante 1.asc


Date: Mon Jun 17 19:26:23 2024
Total elapsed time: 0.011 seconds.

tnom = 27
temp = 27
method = trap
totiter = 0
traniter = 0
tranpoints = 0
accept = 0
rejected = 0
matrix size = 10
fillins = 0
solver = Normal

