Circuit: * Z:\home\abel\Desktop\Abel\Facu\Electrónica Analógica III\TP1\Simulaciones\Circuito resonante\Circuito resonante.asc


Date: Mon Jun 10 23:52:08 2024
Total elapsed time: 0.006 seconds.

tnom = 27
temp = 27
method = trap
totiter = 0
traniter = 0
tranpoints = 0
accept = 0
rejected = 0
matrix size = 1
fillins = 0
solver = Normal

